tests/src/test/resources/files/cases/2_remedial_actions/2_6_ra_usage_limits/network_2nodes_7lines.uct
##C 2007.05.01
##N
##ZFR
FFR1AA1  FR1          0 2 400.00 5000.00 0.00000 0.00000 0.00000 9000.00 -9000.0 9000.00 -9000.0
FFR2AA1  FR2          0 2 400.00 0.00000 0.00000 -5000.0 0.00000 9000.00 -9000.0 9000.00 -9000.0
##L
FFR1AA1  FFR2AA1  1 0 0.0000 10.000 0.000000   5000
FFR1AA1  FFR2AA1  2 0 0.0000 10.000 0.000000   5000
FFR1AA1  FFR2AA1  3 8 0.0000 10.000 0.000000   5000
FFR1AA1  FFR2AA1  4 8 0.0000 10.000 0.000000   5000
FFR1AA1  FFR2AA1  5 8 0.0000 10.000 0.000000   5000
FFR1AA1  FFR2AA1  6 8 0.0000 10.000 0.000000   5000
FFR1AA1  FFR2AA1  7 8 0.0000 10.000 0.000000   5000
